Test_Network/network_26/Feeder_6/Lines.txt
New Line.LINE30 Bus1=29 Bus2=31 phases=3 Linecode=4c_.25 Length=2.5219 Units=m
New Line.LINE60 Bus1=59 Bus2=61 phases=3 Linecode=4c_.3 Length=1.7201 Units=m
New Line.LINE61 Bus1=59 Bus2=62 phases=3 Linecode=4c_.3 Length=1.7201 Units=m
New Line.LINE63 Bus1=61 Bus2=64 phases=3 Linecode=4c_.3 Length=0.40106 Units=m
New Line.LINE64 Bus1=61 Bus2=65 phases=3 Linecode=4c_.3 Length=0.40106 Units=m
New Line.LINE66 Bus1=64 Bus2=67 phases=3 Linecode=4c_.3 Length=0.69797 Units=m
New Line.LINE67 Bus1=64 Bus2=68 phases=3 Linecode=4c_.3 Length=0.69797 Units=m
New Line.LINE69 Bus1=67 Bus2=70 phases=3 Linecode=4c_.3 Length=2.5268 Units=m
New Line.LINE70 Bus1=67 Bus2=71 phases=3 Linecode=4c_.3 Length=2.5268 Units=m
New Line.LINE72 Bus1=70 Bus2=73 phases=3 Linecode=4c_.3 Length=2.8369 Units=m
New Line.LINE73 Bus1=70 Bus2=74 phases=3 Linecode=4c_.3 Length=2.8369 Units=m
New Line.LINE75 Bus1=73 Bus2=76 phases=3 Linecode=4c_.3 Length=4.779 Units=m
New Line.LINE76 Bus1=73 Bus2=77 phases=3 Linecode=4c_.3 Length=4.779 Units=m
New Line.LINE78 Bus1=76 Bus2=79 phases=3 Linecode=4c_.3 Length=6.1817 Units=m
New Line.LINE79 Bus1=76 Bus2=80 phases=3 Linecode=4c_.3 Length=6.1817 Units=m
New Line.LINE81 Bus1=79 Bus2=82 phases=3 Linecode=4c_.3 Length=7.3749 Units=m
New Line.LINE82 Bus1=79 Bus2=83 phases=3 Linecode=4c_.3 Length=7.3749 Units=m
New Line.LINE84 Bus1=82 Bus2=85 phases=3 Linecode=4c_.3 Length=6.2018 Units=m
New Line.LINE85 Bus1=82 Bus2=86 phases=3 Linecode=4c_.3 Length=6.2018 Units=m
New Line.LINE87 Bus1=85 Bus2=88 phases=3 Linecode=4c_.3 Length=7.7846 Units=m
New Line.LINE88 Bus1=85 Bus2=89 phases=3 Linecode=4c_.3 Length=7.7846 Units=m
New Line.LINE90 Bus1=88 Bus2=91 phases=3 Linecode=4c_.3 Length=15.9976 Units=m
New Line.LINE91 Bus1=88 Bus2=92 phases=3 Linecode=4c_.3 Length=15.9976 Units=m
New Line.LINE93 Bus1=91 Bus2=94 phases=3 Linecode=4c_.3 Length=12.5019 Units=m
New Line.LINE94 Bus1=91 Bus2=95 phases=3 Linecode=4c_.3 Length=12.5019 Units=m
New Line.LINE96 Bus1=94 Bus2=97 phases=3 Linecode=4c_.3 Length=0.60844 Units=m
New Line.LINE97 Bus1=94 Bus2=98 phases=3 Linecode=4c_.3 Length=0.60844 Units=m
New Line.LINE99 Bus1=97 Bus2=100 phases=3 Linecode=4c_.3 Length=0.68412 Units=m
New Line.LINE100 Bus1=97 Bus2=101 phases=3 Linecode=4c_.3 Length=0.68412 Units=m
New Line.LINE102 Bus1=100 Bus2=103 phases=3 Linecode=4c_.3 Length=1.0432 Units=m
New Line.LINE103 Bus1=100 Bus2=104 phases=3 Linecode=4c_.3 Length=1.0432 Units=m
New Line.LINE104 Bus1=102 Bus2=105 phases=3 Linecode=4c_.12 Length=1.939 Units=m
New Line.LINE105 Bus1=102 Bus2=106 phases=3 Linecode=4c_.12 Length=1.7845 Units=m
New Line.LINE106 Bus1=102 Bus2=107 phases=3 Linecode=4c_.12 Length=1.7845 Units=m
New Line.LINE107 Bus1=103 Bus2=108 phases=3 Linecode=4c_.3 Length=0.87118 Units=m
New Line.LINE108 Bus1=103 Bus2=109 phases=3 Linecode=4c_.3 Length=0.87118 Units=m
New Line.LINE110 Bus1=105 Bus2=111 phases=3 Linecode=4c_.12 Length=1.6398 Units=m
New Line.LINE111 Bus1=106 Bus2=112 phases=3 Linecode=4c_.12 Length=2.0756 Units=m
New Line.LINE112 Bus1=106 Bus2=113 phases=3 Linecode=4c_.12 Length=2.0756 Units=m
New Line.LINE113 Bus1=108 Bus2=114 phases=3 Linecode=4c_.3 Length=1.1352 Units=m
New Line.LINE114 Bus1=108 Bus2=115 phases=3 Linecode=4c_.3 Length=1.1352 Units=m
New Line.LINE116 Bus1=111 Bus2=117 phases=3 Linecode=2c_.04 Length=6.8256 Units=m
New Line.LINE118 Bus1=112 Bus2=119 phases=3 Linecode=4c_.12 Length=0.69895 Units=m
New Line.LINE119 Bus1=112 Bus2=120 phases=3 Linecode=4c_.12 Length=0.69895 Units=m
New Line.LINE120 Bus1=114 Bus2=121 phases=3 Linecode=4c_.3 Length=0.79438 Units=m
New Line.LINE121 Bus1=114 Bus2=122 phases=3 Linecode=4c_.3 Length=0.79438 Units=m
New Line.LINE123 Bus1=117 Bus2=124 phases=3 Linecode=2c_.04 Length=4.4985 Units=m
New Line.LINE126 Bus1=119 Bus2=127 phases=3 Linecode=4c_.12 Length=0.3565 Units=m
New Line.LINE127 Bus1=119 Bus2=128 phases=3 Linecode=4c_.12 Length=0.3565 Units=m
New Line.LINE128 Bus1=121 Bus2=129 phases=3 Linecode=4c_.3 Length=1.0117 Units=m
New Line.LINE129 Bus1=121 Bus2=130 phases=3 Linecode=4c_.3 Length=1.0117 Units=m
New Line.LINE133 Bus1=127 Bus2=134 phases=3 Linecode=2c_.04 Length=8.8692 Units=m
New Line.LINE134 Bus1=127 Bus2=135 phases=3 Linecode=4c_.12 Length=0.26928 Units=m
New Line.LINE135 Bus1=127 Bus2=136 phases=3 Linecode=4c_.12 Length=0.26928 Units=m
New Line.LINE136 Bus1=129 Bus2=137 phases=3 Linecode=4c_.3 Length=0.76066 Units=m
New Line.LINE137 Bus1=129 Bus2=138 phases=3 Linecode=4c_.3 Length=0.76066 Units=m
New Line.LINE141 Bus1=134 Bus2=142 phases=3 Linecode=2c_.04 Length=5.0849 Units=m
New Line.LINE143 Bus1=135 Bus2=144 phases=3 Linecode=4c_.12 Length=0.87341 Units=m
New Line.LINE144 Bus1=135 Bus2=145 phases=3 Linecode=4c_.12 Length=0.87341 Units=m
New Line.LINE145 Bus1=137 Bus2=146 phases=3 Linecode=4c_.3 Length=0.90927 Units=m
New Line.LINE146 Bus1=137 Bus2=147 phases=3 Linecode=4c_.3 Length=0.90927 Units=m
New Line.LINE151 Bus1=144 Bus2=152 phases=3 Linecode=4c_.12 Length=1.6002 Units=m
New Line.LINE152 Bus1=144 Bus2=153 phases=3 Linecode=4c_.12 Length=1.6002 Units=m
New Line.LINE153 Bus1=146 Bus2=154 phases=3 Linecode=4c_.3 Length=0.88325 Units=m
New Line.LINE154 Bus1=146 Bus2=155 phases=3 Linecode=4c_.3 Length=0.88325 Units=m
New Line.LINE159 Bus1=152 Bus2=160 phases=3 Linecode=4c_.12 Length=0.77018 Units=m
New Line.LINE160 Bus1=152 Bus2=161 phases=3 Linecode=4c_.12 Length=0.77018 Units=m
New Line.LINE161 Bus1=154 Bus2=162 phases=3 Linecode=4c_.3 Length=1.0765 Units=m
New Line.LINE162 Bus1=154 Bus2=163 phases=3 Linecode=4c_.3 Length=1.0765 Units=m
New Line.LINE167 Bus1=160 Bus2=168 phases=3 Linecode=4c_.12 Length=1.2125 Units=m
New Line.LINE168 Bus1=160 Bus2=169 phases=3 Linecode=4c_.12 Length=1.2125 Units=m
New Line.LINE169 Bus1=162 Bus2=170 phases=3 Linecode=4c_.3 Length=0.93304 Units=m
New Line.LINE170 Bus1=162 Bus2=171 phases=3 Linecode=4c_.3 Length=0.93304 Units=m
New Line.LINE175 Bus1=168 Bus2=176 phases=3 Linecode=4c_.12 Length=1.2768 Units=m
New Line.LINE176 Bus1=168 Bus2=177 phases=3 Linecode=4c_.12 Length=1.2768 Units=m
New Line.LINE177 Bus1=170 Bus2=178 phases=3 Linecode=4c_.3 Length=0.94568 Units=m
New Line.LINE178 Bus1=170 Bus2=179 phases=3 Linecode=4c_.3 Length=0.94568 Units=m
New Line.LINE185 Bus1=176 Bus2=186 phases=3 Linecode=4c_.12 Length=3.0573 Units=m
New Line.LINE186 Bus1=176 Bus2=187 phases=3 Linecode=4c_.12 Length=3.0573 Units=m
New Line.LINE187 Bus1=178 Bus2=188 phases=3 Linecode=4c_.3 Length=1.4233 Units=m
New Line.LINE188 Bus1=178 Bus2=189 phases=3 Linecode=4c_.3 Length=1.4233 Units=m
New Line.LINE195 Bus1=186 Bus2=196 phases=3 Linecode=4c_.12 Length=0.095692 Units=m
New Line.LINE196 Bus1=186 Bus2=197 phases=3 Linecode=4c_.12 Length=0.095692 Units=m
New Line.LINE197 Bus1=188 Bus2=198 phases=3 Linecode=4c_.3 Length=0.44314 Units=m
New Line.LINE198 Bus1=188 Bus2=199 phases=3 Linecode=4c_.3 Length=0.44314 Units=m
New Line.LINE203 Bus1=194 Bus2=204 phases=3 Linecode=2c_.04 Length=8.3069 Units=m
New Line.LINE206 Bus1=196 Bus2=207 phases=3 Linecode=2c_.04 Length=7.333 Units=m
New Line.LINE207 Bus1=196 Bus2=208 phases=3 Linecode=4c_.12 Length=5.7086 Units=m
New Line.LINE208 Bus1=196 Bus2=209 phases=3 Linecode=4c_.12 Length=5.7086 Units=m
New Line.LINE209 Bus1=198 Bus2=210 phases=3 Linecode=4c_.3 Length=0.40655 Units=m
New Line.LINE210 Bus1=198 Bus2=211 phases=3 Linecode=4c_.3 Length=0.40655 Units=m
New Line.LINE215 Bus1=204 Bus2=216 phases=3 Linecode=2c_.04 Length=3.7623 Units=m
New Line.LINE219 Bus1=207 Bus2=220 phases=3 Linecode=2c_.04 Length=4.0687 Units=m
New Line.LINE220 Bus1=207 Bus2=221 phases=3 Linecode=2c_.04 Length=0.51011 Units=m
New Line.LINE221 Bus1=207 Bus2=222 phases=3 Linecode=2c_.04 Length=0.51011 Units=m
New Line.LINE222 Bus1=208 Bus2=223 phases=3 Linecode=4c_.12 Length=4.9155 Units=m
New Line.LINE223 Bus1=208 Bus2=224 phases=3 Linecode=4c_.12 Length=4.9155 Units=m
New Line.LINE224 Bus1=210 Bus2=225 phases=3 Linecode=4c_.3 Length=0.37195 Units=m
New Line.LINE225 Bus1=210 Bus2=226 phases=3 Linecode=4c_.3 Length=0.37195 Units=m
New Line.LINE232 Bus1=218 Bus2=233 phases=3 Linecode=4c_.12 Length=4.1005 Units=m
New Line.LINE234 Bus1=221 Bus2=235 phases=3 Linecode=2c_.04 Length=0.092849 Units=m
New Line.LINE235 Bus1=221 Bus2=236 phases=3 Linecode=2c_.04 Length=0.092849 Units=m
New Line.LINE236 Bus1=223 Bus2=237 phases=3 Linecode=4c_.12 Length=4.3456 Units=m
New Line.LINE237 Bus1=223 Bus2=238 phases=3 Linecode=4c_.12 Length=4.3456 Units=m
New Line.LINE238 Bus1=225 Bus2=239 phases=3 Linecode=4c_.3 Length=0.28492 Units=m
New Line.LINE239 Bus1=225 Bus2=240 phases=3 Linecode=4c_.3 Length=0.28492 Units=m
New Line.LINE247 Bus1=233 Bus2=248 phases=3 Linecode=4c_.12 Length=1.8718 Units=m
New Line.LINE249 Bus1=235 Bus2=250 phases=3 Linecode=2c_.04 Length=0.069635 Units=m
New Line.LINE250 Bus1=235 Bus2=251 phases=3 Linecode=2c_.04 Length=0.069635 Units=m
New Line.LINE251 Bus1=237 Bus2=252 phases=3 Linecode=4c_.12 Length=0.45181 Units=m
New Line.LINE252 Bus1=237 Bus2=253 phases=3 Linecode=4c_.12 Length=0.45181 Units=m
New Line.LINE253 Bus1=239 Bus2=254 phases=3 Linecode=4c_.3 Length=1.272 Units=m
New Line.LINE254 Bus1=239 Bus2=255 phases=3 Linecode=4c_.3 Length=1.272 Units=m
New Line.LINE264 Bus1=250 Bus2=265 phases=3 Linecode=2c_.04 Length=0.059033 Units=m
New Line.LINE265 Bus1=250 Bus2=266 phases=3 Linecode=2c_.04 Length=0.059033 Units=m
New Line.LINE266 Bus1=252 Bus2=267 phases=3 Linecode=4c_.12 Length=5.0306 Units=m
New Line.LINE267 Bus1=252 Bus2=268 phases=3 Linecode=4c_.12 Length=5.0306 Units=m
New Line.LINE268 Bus1=254 Bus2=269 phases=3 Linecode=4c_.3 Length=4.5505 Units=m
New Line.LINE269 Bus1=254 Bus2=270 phases=3 Linecode=4c_.3 Length=4.5505 Units=m
New Line.LINE279 Bus1=265 Bus2=280 phases=3 Linecode=2c_.04 Length=0.041196 Units=m
New Line.LINE280 Bus1=265 Bus2=281 phases=3 Linecode=2c_.04 Length=0.041196 Units=m
New Line.LINE282 Bus1=267 Bus2=283 phases=3 Linecode=4c_.12 Length=5.1847 Units=m
New Line.LINE283 Bus1=267 Bus2=284 phases=3 Linecode=4c_.12 Length=5.1847 Units=m
New Line.LINE284 Bus1=269 Bus2=285 phases=3 Linecode=4c_.3 Length=3.0903 Units=m
New Line.LINE285 Bus1=269 Bus2=286 phases=3 Linecode=4c_.3 Length=3.0903 Units=m
New Line.LINE297 Bus1=280 Bus2=298 phases=3 Linecode=2c_.04 Length=0.058215 Units=m
New Line.LINE298 Bus1=280 Bus2=299 phases=3 Linecode=2c_.04 Length=0.058215 Units=m
New Line.LINE300 Bus1=283 Bus2=301 phases=3 Linecode=4c_.12 Length=1.8986 Units=m
New Line.LINE301 Bus1=283 Bus2=302 phases=3 Linecode=4c_.12 Length=1.8986 Units=m
New Line.LINE306 Bus1=288 Bus2=307 phases=3 Linecode=2c_.04 Length=5.4459 Units=m
New Line.LINE318 Bus1=298 Bus2=319 phases=3 Linecode=2c_.04 Length=0.095709 Units=m
New Line.LINE319 Bus1=298 Bus2=320 phases=3 Linecode=2c_.04 Length=0.095709 Units=m
New Line.LINE321 Bus1=301 Bus2=322 phases=3 Linecode=4c_.12 Length=6.7282 Units=m
New Line.LINE322 Bus1=301 Bus2=323 phases=3 Linecode=2c_.04 Length=7.9363 Units=m
New Line.LINE323 Bus1=301 Bus2=324 phases=3 Linecode=4c_.12 Length=6.7282 Units=m
New Line.LINE338 Bus1=319 Bus2=339 phases=3 Linecode=2c_.04 Length=0.11182 Units=m
New Line.LINE339 Bus1=319 Bus2=340 phases=3 Linecode=2c_.04 Length=0.11182 Units=m
New Line.LINE341 Bus1=322 Bus2=342 phases=3 Linecode=4c_.12 Length=2.5429 Units=m
New Line.LINE342 Bus1=322 Bus2=343 phases=3 Linecode=4c_.12 Length=2.5429 Units=m
New Line.LINE344 Bus1=323 Bus2=345 phases=3 Linecode=2c_.04 Length=4.8547 Units=m
New Line.LINE359 Bus1=339 Bus2=360 phases=3 Linecode=2c_.04 Length=0.33005 Units=m
New Line.LINE360 Bus1=339 Bus2=361 phases=3 Linecode=2c_.04 Length=0.33005 Units=m
New Line.LINE363 Bus1=342 Bus2=364 phases=3 Linecode=4c_.12 Length=6.4899 Units=m
New Line.LINE364 Bus1=342 Bus2=365 phases=3 Linecode=4c_.12 Length=6.4899 Units=m
New Line.LINE378 Bus1=360 Bus2=379 phases=3 Linecode=2c_.04 Length=0.09902 Units=m
New Line.LINE379 Bus1=360 Bus2=380 phases=3 Linecode=2c_.04 Length=0.09902 Units=m
New Line.LINE382 Bus1=364 Bus2=383 phases=3 Linecode=4c_.12 Length=1.4222 Units=m
New Line.LINE383 Bus1=364 Bus2=384 phases=3 Linecode=4c_.12 Length=1.4222 Units=m
New Line.LINE397 Bus1=379 Bus2=398 phases=3 Linecode=2c_.04 Length=0.07433 Units=m
New Line.LINE398 Bus1=379 Bus2=399 phases=3 Linecode=2c_.04 Length=0.07433 Units=m
New Line.LINE400 Bus1=382 Bus2=401 phases=3 Linecode=2c_.04 Length=4.3632 Units=m
New Line.LINE402 Bus1=383 Bus2=403 phases=3 Linecode=2c_.04 Length=1.2969 Units=m
New Line.LINE403 Bus1=383 Bus2=404 phases=3 Linecode=4c_.12 Length=9.1674 Units=m
New Line.LINE409 Bus1=389 Bus2=410 phases=3 Linecode=2c_.04 Length=6.0619 Units=m
New Line.LINE420 Bus1=398 Bus2=421 phases=3 Linecode=2c_.04 Length=0.10486 Units=m
New Line.LINE421 Bus1=398 Bus2=422 phases=3 Linecode=2c_.04 Length=0.10486 Units=m
New Line.LINE424 Bus1=404 Bus2=425 phases=3 Linecode=4c_.12 Length=9.9701 Units=m
New Line.LINE425 Bus1=404 Bus2=426 phases=3 Linecode=4c_.12 Length=9.9701 Units=m
New Line.LINE426 Bus1=404 Bus2=427 phases=3 Linecode=4c_.12 Length=7.8143 Units=m
New Line.LINE430 Bus1=408 Bus2=431 phases=3 Linecode=4c_.12 Length=4.4387 Units=m
New Line.LINE432 Bus1=408 Bus2=433 phases=3 Linecode=4c_.12 Length=4.4387 Units=m
New Line.LINE433 Bus1=408 Bus2=434 phases=3 Linecode=4c_.12 Length=4.4387 Units=m
New Line.LINE439 Bus1=415 Bus2=440 phases=3 Linecode=2c_.04 Length=4.9893 Units=m
New Line.LINE440 Bus1=415 Bus2=441 phases=3 Linecode=2c_.04 Length=4.9893 Units=m
New Line.LINE447 Bus1=421 Bus2=448 phases=3 Linecode=2c_.04 Length=0.11611 Units=m
New Line.LINE448 Bus1=421 Bus2=449 phases=3 Linecode=2c_.04 Length=0.11611 Units=m
New Line.LINE451 Bus1=425 Bus2=452 phases=3 Linecode=4c_.12 Length=0.81646 Units=m
New Line.LINE452 Bus1=425 Bus2=453 phases=3 Linecode=4c_.12 Length=0.81646 Units=m
New Line.LINE456 Bus1=431 Bus2=457 phases=3 Linecode=4c_.12 Length=10.495 Units=m
New Line.LINE457 Bus1=431 Bus2=458 phases=3 Linecode=4c_.12 Length=10.495 Units=m
New Line.LINE458 Bus1=431 Bus2=459 phases=3 Linecode=4c_.12 Length=10.3085 Units=m
New Line.LINE471 Bus1=448 Bus2=472 phases=3 Linecode=2c_.04 Length=0.159 Units=m
New Line.LINE472 Bus1=448 Bus2=473 phases=3 Linecode=2c_.04 Length=0.159 Units=m
New Line.LINE475 Bus1=452 Bus2=476 phases=3 Linecode=4c_.12 Length=0.88704 Units=m
New Line.LINE476 Bus1=452 Bus2=477 phases=3 Linecode=4c_.12 Length=0.88704 Units=m
New Line.LINE480 Bus1=457 Bus2=481 phases=3 Linecode=4c_.12 Length=0.90565 Units=m
New Line.LINE481 Bus1=457 Bus2=482 phases=3 Linecode=4c_.12 Length=0.90565 Units=m
New Line.LINE482 Bus1=457 Bus2=483 phases=3 Linecode=2c_.04 Length=6.1533 Units=m
New Line.LINE483 Bus1=457 Bus2=484 phases=3 Linecode=4c_.12 Length=0.90565 Units=m
New Line.LINE484 Bus1=457 Bus2=485 phases=3 Linecode=4c_.12 Length=0.18652 Units=m
New Line.LINE486 Bus1=459 Bus2=487 phases=3 Linecode=2c_.007 Length=0.78342 Units=m
New Line.LINE498 Bus1=472 Bus2=499 phases=3 Linecode=2c_.04 Length=8.5739 Units=m
New Line.LINE499 Bus1=472 Bus2=500 phases=3 Linecode=2c_.04 Length=8.5739 Units=m
New Line.LINE502 Bus1=476 Bus2=503 phases=3 Linecode=4c_.12 Length=0.99914 Units=m
New Line.LINE503 Bus1=476 Bus2=504 phases=3 Linecode=4c_.12 Length=0.99914 Units=m
New Line.LINE507 Bus1=481 Bus2=508 phases=3 Linecode=4c_.12 Length=1.5432 Units=m
New Line.LINE508 Bus1=481 Bus2=509 phases=3 Linecode=4c_.12 Length=1.5432 Units=m
New Line.LINE509 Bus1=481 Bus2=510 phases=3 Linecode=4c_.12 Length=1.5432 Units=m
New Line.LINE511 Bus1=483 Bus2=512 phases=3 Linecode=2c_.04 Length=5.0943 Units=m
New Line.LINE525 Bus1=499 Bus2=526 phases=3 Linecode=2c_.04 Length=0.28867 Units=m
New Line.LINE526 Bus1=499 Bus2=527 phases=3 Linecode=2c_.04 Length=0.28867 Units=m
New Line.LINE529 Bus1=503 Bus2=530 phases=3 Linecode=4c_.12 Length=0.90506 Units=m
New Line.LINE530 Bus1=503 Bus2=531 phases=3 Linecode=4c_.12 Length=0.90506 Units=m
New Line.LINE534 Bus1=508 Bus2=535 phases=3 Linecode=4c_.12 Length=12.5963 Units=m
New Line.LINE535 Bus1=508 Bus2=536 phases=3 Linecode=4c_.12 Length=12.5963 Units=m
New Line.LINE536 Bus1=508 Bus2=537 phases=3 Linecode=4c_.12 Length=12.5963 Units=m
New Line.LINE551 Bus1=526 Bus2=552 phases=3 Linecode=2c_.04 Length=0.19602 Units=m
New Line.LINE552 Bus1=526 Bus2=553 phases=3 Linecode=2c_.04 Length=0.19602 Units=m
New Line.LINE555 Bus1=530 Bus2=556 phases=3 Linecode=4c_.12 Length=1.0124 Units=m
New Line.LINE556 Bus1=530 Bus2=557 phases=3 Linecode=4c_.12 Length=1.0124 Units=m
...
